services/opendss-sim/dss/substation_feeder.dss
! RangerDanger Substation Feeder Circuit
! Realistic distribution feeder using IEEE 13-bus line codes.
!
! Topology:
!   Vsource (12.47 kV) -> Breaker -> Feeder_Main -> Recloser -> Loads
!                                                       |
!                                                  General Load (500 kW)
!                                                       |
!                                                  Lateral -> VReg -> Critical Load (200 kW)

Clear

New Circuit.SubstationFeeder
~ basekv=12.47  pu=1.0  phases=3  bus1=sourcebus
~ angle=0  frequency=60  mvasc3=200  mvasc1=200

! Load line impedance definitions
Redirect linecodes.dss

! ── Feeder Breaker (relay-sim) ──────────────────────────────────────
New Line.Breaker  bus1=sourcebus  bus2=breaker_bus  phases=3
~ switch=yes  r1=0.001  x1=0.001  r0=0.001  x0=0.001  c1=0  c0=0  length=1  units=ft

! ── Main Feeder Segment (config 601 — 336 ACSR) ────────────────────
! ~12 mi of main feeder — a long rural distribution span so the unregulated
! load-bus voltage responds to demand. At this ~700 kW (<10% of conductor
! ampacity) loading the feeder is electrically stiff, so the response is a few
! tenths of a volt — modest by design and physically honest, not exaggerated.
New Line.Feeder_Main  bus1=breaker_bus  bus2=recloser_bus  phases=3
~ linecode=601  length=64000  units=ft

! ── Mid-feeder Recloser ─────────────────────────────────────────────
New Line.Recloser  bus1=recloser_bus  bus2=load_bus  phases=3
~ switch=yes  r1=0.001  x1=0.001  r0=0.001  x0=0.001  c1=0  c0=0  length=1  units=ft

! Predefine the simulated fault so runtime solves only toggle its enabled state.
New Fault.F1 bus1=recloser_bus phases=3 r=0.01 enabled=no

! ── General Load (500 kW, 0.9 PF) ──────────────────────────────────
New Load.GeneralLoad  bus1=load_bus  phases=3
~ kv=12.47  kw=500  pf=0.9  model=1  conn=wye

! ── Switched Capacitor Bank (capbank-sim) ──────────────────────────
! 300 kVAR shunt cap at the main load bus for reactive (VAR) support.
! When switched IN it injects VARs: local voltage rises a little, feeder
! current and source reactive demand drop, power factor improves. Created
! enabled=no (out) to match capbank-sim's default switched_in=false; the
! solver Enables/Disables it from capbank.switched_in on every solve.
New Capacitor.CapBank  bus1=load_bus  phases=3  kv=12.47  kvar=300  enabled=no

! ── Lateral to Regulator (config 602 — 4/0 ACSR) ───────────────────
New Line.Lateral_B  bus1=load_bus  bus2=vreg_hi  phases=3
~ linecode=602  length=16000  units=ft

! ── Voltage Regulator (single-phase LTC ±10%, 32 steps) ────────────
New Transformer.VReg  phases=3  windings=2
~ wdg=1  bus=vreg_hi  kv=12.47  kva=5000  conn=wye  %r=0.01
~ wdg=2  bus=reg_bus  kv=12.47  kva=5000  conn=wye  %r=0.01

New RegControl.VRegCtrl  transformer=VReg  winding=2
~ vreg=120  band=2  ptratio=60  ctprim=300
~ maxtapchange=0
! Intentionally INERT (maxtapchange=0): OpenDSS does NOT auto-regulate here.
! The tap is driven externally from circuit.py (from the regulator-sim's
! tap_position), and the AUTO voltage-regulation loop lives in the RTAC
! (services/rtac-sim auto control), NOT in the physics engine — this keeps
! device sims authoritative and the regulator's manual/auto mode meaningful.
! This block only records the regulator's setpoint/band for reference.

! ── Critical Load (200 kW, 0.95 PF) ────────────────────────────────
New Load.CriticalLoad  bus1=reg_bus  phases=3
~ kv=12.47  kw=200  pf=0.95  model=1  conn=wye

! ── Solve settings ──────────────────────────────────────────────────
Set voltagebases=[12.47]
Calcvoltagebases
Set mode=snapshot
Set maxiterations=100
Set tolerance=0.0001
